Circuit: * C:\Users\alandex\Dropbox\Compartido\FIUBA\Radar - MIT\Draft2.asc

Direct Newton iteration for .op point succeeded.

Date: Mon Apr 20 08:37:03 2015
Total elapsed time: 0.032 seconds.

tnom = 27
temp = 27
method = trap
totiter = 3
traniter = 0
tranpoints = 0
accept = 0
rejected = 0
matrix size = 3
fillins = 0
solver = Normal
Matrix Compiler1: 50 bytes object code size
Matrix Compiler2: 175 bytes object code size

