Circuit: * Z:\home\francisco\Documents\miniradar\simulaciones\pasa bajos\Simulacion.asc

WARNING: Less than two connections to node OUTPUT.  This node is used by R12.
WARNING: Less than two connections to node +12.  This node is used by V1.
Ignoring empty pin current: Ix(u1:1)
Ignoring empty pin current: Ix(u1:2)
Ignoring empty pin current: Ix(u2:1)
Ignoring empty pin current: Ix(u2:2)
Ignoring empty pin current: Ix(u3:1)
Ignoring empty pin current: Ix(u3:2)

Date: Thu Sep 14 16:55:44 2017
Total elapsed time: 0.066 seconds.

tnom = 27
temp = 27
method = trap
totiter = 0
traniter = 0
tranpoints = 0
accept = 0
rejected = 0
matrix size = 19
fillins = 20
solver = Normal

